[TITLE]


[JUNCTIONS]
;ID              	Elev        	Demand      	Pattern         
 1               	12.60       	1.57        	consumo         	;
 2               	5.94        	2.29        	consumo         	;
 3               	6.18        	2.57        	consumo         	;
 4               	6.48        	2.29        	consumo         	;
 5               	6.44        	0.54        	consumo         	;
 6               	2.85        	0.32        	consumo         	;
 7               	2.71        	1.00        	consumo         	;
 8               	2.66        	3.14        	consumo         	;
 9               	2.55        	0.54        	consumo         	;
 10              	2.94        	0.46        	consumo         	;
 11              	2.94        	1.39        	consumo         	;
 12              	2.70        	0.82        	consumo         	;
 13              	3.08        	1.07        	consumo         	;
 14              	8.48        	0.93        	consumo         	;
 15              	6.81        	1.29        	consumo         	;
 16              	2.70        	0.54        	consumo         	;
 17              	2.42        	0.18        	consumo         	;
 18              	2.54        	0.21        	consumo         	;
 19              	2.77        	1.57        	consumo         	;
 20              	2.47        	1.18        	consumo         	;
 21              	2.27        	0.82        	consumo         	;
 22              	2.53        	1.11        	consumo         	;
 23              	2.82        	0.36        	consumo         	;
 24              	2.70        	0.39        	consumo         	;
 25              	2.68        	0.61        	consumo         	;
 26              	2.38        	0.25        	consumo         	;
 27              	2.85        	0.46        	consumo         	;
 28              	2.58        	1.07        	consumo         	;
 29              	2.53        	0.29        	consumo         	;
 30              	2.49        	0.14        	consumo         	;
 31              	2.39        	0.32        	consumo         	;
 32              	2.83        	1.29        	consumo         	;
 33              	3.98        	0.68        	consumo         	;
 34              	4.04        	0.00        	consumo         	;
 35              	3.92        	0.54        	consumo         	;
 36              	4.28        	0.50        	consumo         	;
 37              	5.30        	0.50        	consumo         	;
 38              	5.39        	0.50        	consumo         	;
 39              	4.92        	0.93        	consumo         	;
 40              	5.59        	0.32        	consumo         	;
 41              	4.90        	0.00        	consumo         	;
 45              	5.94        	2.99        	consumo         	;
 46              	10.79       	0.00        	consumo         	;
 47              	11.50       	0.00        	consumo         	;
 49              	8.18        	1.47        	consumo         	;
 50              	8.03        	1.15        	consumo         	;
 51              	12.46       	2.82        	consumo         	;
 52              	9.10        	1.75        	consumo         	;
 53              	10.26       	0.25        	consumo         	;
 54              	10.79       	0.57        	consumo         	;
 55              	10.28       	0.14        	consumo         	;
 56              	10.19       	0.14        	consumo         	;
 57              	9.78        	4.72        	consumo         	;
 58              	3.76        	1.61        	consumo         	;
 59              	3.58        	1.04        	consumo         	;
 60              	2.79        	0.57        	consumo         	;
 62              	1.86        	0.71        	consumo         	;
 63              	2.38        	1.04        	consumo         	;
 64              	10.53       	1.07        	consumo         	;
 65              	11.17       	0.79        	consumo         	;
 66              	7.90        	2.25        	consumo         	;
 67              	3.72        	0.68        	consumo         	;
 68              	1.89        	1.29        	consumo         	;
 69              	3.43        	0.07        	consumo         	;
 70              	12.10       	0.14        	consumo         	;
 71              	4.95        	0.11        	consumo         	;
 72              	1.84        	2.39        	consumo         	;
 73              	2.43        	0.18        	consumo         	;
 75              	2.45        	0.29        	consumo         	;
 76              	2.81        	2.29        	consumo         	;
 77              	3.12        	2.32        	consumo         	;
 78              	4.93        	1.29        	consumo         	;
 79              	7.35        	0.75        	consumo         	;
 80              	2.44        	2.22        	consumo         	;
 81              	1.90        	2.07        	consumo         	;
 82              	3.42        	2.00        	consumo         	;
 83              	1.75        	0.93        	consumo         	;
 84              	2.16        	1.47        	consumo         	;
 85              	2.60        	0.68        	consumo         	;
 86              	3.29        	1.04        	consumo         	;
 87              	4.24        	1.07        	consumo         	;
 88              	4.97        	0.46        	consumo         	;
 89              	5.23        	1.29        	consumo         	;
 90              	5.69        	0.36        	consumo         	;
 91              	6.59        	0.93        	consumo         	;
 92              	7.41        	0.46        	consumo         	;
 93              	8.40        	0.43        	consumo         	;
 94              	8.54        	0.79        	consumo         	;
 95              	5.11        	2.57        	consumo         	;
 96              	3.96        	5.15        	consumo         	;
 97              	1.60        	3.43        	consumo         	;
 98              	2.20        	0.75        	consumo         	;
 99              	2.16        	3.82        	consumo         	;
 100             	3.14        	0.75        	consumo         	;
 101             	11.20       	1.64        	consumo         	;
 102             	1.89        	4.25        	consumo         	;
 103             	3.88        	2.64        	consumo         	;
 104             	6.45        	1.00        	consumo         	;
 105             	6.51        	1.68        	consumo         	;
 106             	10.44       	1.18        	consumo         	;
 107             	2.29        	0.79        	consumo         	;
 108             	2.34        	0.50        	consumo         	;
 109             	2.38        	1.04        	consumo         	;
 110             	2.00        	3.00        	consumo         	;
 111             	1.58        	0.04        	consumo         	;
 112             	3.83        	0.00        	consumo         	;
 113             	4.49        	0.93        	consumo         	;
 114             	4.87        	0.46        	consumo         	;
 115             	5.37        	1.14        	consumo         	;
 116             	7.08        	1.57        	consumo         	;
 117             	8.70        	2.32        	consumo         	;
 118             	8.94        	0.82        	consumo         	;
 119             	9.21        	0.39        	consumo         	;
 120             	9.49        	0.43        	consumo         	;
 121             	10.36       	1.47        	consumo         	;
 122             	10.73       	0.29        	consumo         	;
 123             	10.20       	0.61        	consumo         	;
 124             	8.30        	1.39        	consumo         	;
 125             	9.98        	0.46        	consumo         	;
 126             	13.41       	0.57        	consumo         	;
 127             	14.62       	0.36        	consumo         	;
 128             	13.15       	0.21        	consumo         	;
 129             	11.03       	0.18        	consumo         	;
 130             	10.78       	0.32        	consumo         	;
 131             	12.32       	0.57        	consumo         	;
 132             	13.04       	0.25        	consumo         	;
 133             	12.51       	0.11        	consumo         	;
 134             	10.85       	0.43        	consumo         	;
 135             	9.64        	0.25        	consumo         	;
 136             	10.25       	0.46        	consumo         	;
 137             	11.21       	0.29        	consumo         	;
 138             	12.46       	2.50        	consumo         	;
 139             	8.64        	1.32        	consumo         	;
 140             	8.36        	0.64        	consumo         	;
 141             	7.56        	0.39        	consumo         	;
 142             	7.95        	0.53        	consumo         	;
 143             	6.99        	0.29        	consumo         	;
 144             	7.42        	4.74        	consumo         	;
 145             	8.14        	1.39        	consumo         	;
 146             	8.20        	4.79        	consumo         	;
 147             	8.13        	2.29        	consumo         	;
 148             	8.27        	3.76        	consumo         	;
 149             	8.33        	0.41        	consumo         	;
 150             	8.47        	0.29        	consumo         	;
 151             	8.47        	2.00        	consumo         	;
 152             	8.74        	3.93        	consumo         	;
 153             	10.14       	0.61        	consumo         	;
 154             	9.67        	0.82        	consumo         	;
 155             	9.88        	0.90        	consumo         	;
 156             	8.87        	1.84        	consumo         	;
 157             	7.76        	1.27        	consumo         	;
 158             	11.56       	3.80        	consumo         	;
 159             	11.13       	0.90        	consumo         	;
 160             	10.24       	1.92        	consumo         	;
 162             	8.16        	0.00        	consumo         	;
 164             	7.75        	0.00        	consumo         	;
 166             	7.75        	0.00        	consumo         	;
 167             	8.26        	0.00        	consumo         	;
 168             	8.49        	0.00        	consumo         	;
 169             	9.02        	0.00        	consumo         	;
 171             	8.72        	0.00        	consumo         	;
 172             	8.41        	0.00        	consumo         	;
 173             	9.33        	0.00        	consumo         	;
 174             	9.34        	0.00        	consumo         	;
 175             	9.16        	0.00        	consumo         	;
 176             	9.42        	0.00        	consumo         	;
 177             	9.48        	0.00        	consumo         	;
 178             	10.02       	0.00        	consumo         	;
 180             	9.51        	0.00        	consumo         	;
 181             	10.06       	0.00        	consumo         	;
 182             	9.36        	0.00        	consumo         	;
 183             	9.88        	0.00        	consumo         	;
 184             	8.40        	0.00        	consumo         	;
 185             	9.16        	0.00        	consumo         	;
 186             	7.10        	1.68        	consumo         	;
 187             	5.64        	1.92        	consumo         	;
 188             	5.25        	0.45        	consumo         	;
 189             	5.12        	0.49        	consumo         	;
 190             	4.66        	0.70        	consumo         	;
 191             	4.54        	0.70        	consumo         	;
 192             	4.26        	1.06        	consumo         	;
 193             	7.38        	11.37       	consumo         	;
 194             	10.00       	0.08        	consumo         	;
 195             	10.00       	0.61        	consumo         	;
 196             	8.49        	0.33        	consumo         	;
 197             	7.92        	0.45        	consumo         	;
 198             	7.70        	1.06        	consumo         	;
 199             	8.26        	0.70        	consumo         	;
 200             	8.72        	0.00        	consumo         	;
 201             	9.09        	0.00        	consumo         	;
 202             	9.40        	0.04        	consumo         	;
 203             	9.17        	0.00        	consumo         	;
 204             	9.42        	3.15        	consumo         	;
 205             	8.90        	2.94        	consumo         	;
 206             	7.93        	1.76        	consumo         	;
 207             	8.02        	0.65        	consumo         	;
 208             	10.86       	1.64        	consumo         	;
 209             	6.85        	0.29        	consumo         	;
 210             	5.75        	0.12        	consumo         	;
 211             	5.88        	1.92        	consumo         	;
 212             	5.11        	2.86        	consumo         	;
 213             	6.58        	3.15        	consumo         	;
 214             	6.84        	0.90        	consumo         	;
 215             	6.95        	1.88        	consumo         	;
 216             	6.30        	0.70        	consumo         	;
 217             	7.83        	0.00        	consumo         	;
 218             	7.67        	0.00        	consumo         	;
 219             	8.60        	0.00        	consumo         	;
 220             	8.88        	0.00        	consumo         	;
 221             	8.21        	0.16        	consumo         	;
 222             	9.12        	0.16        	consumo         	;
 223             	11.21       	0.00        	consumo         	;
 224             	11.38       	0.08        	consumo         	;
 225             	9.46        	0.00        	consumo         	;
 226             	9.46        	0.04        	consumo         	;
 227             	9.26        	0.00        	consumo         	;
 228             	5.55        	0.00        	consumo         	;
 229             	5.60        	0.00        	consumo         	;
 230             	5.73        	0.00        	consumo         	;
 231             	6.04        	4.38        	consumo         	;
 232             	7.29        	0.90        	consumo         	;
 233             	7.97        	3.03        	consumo         	;
 234             	7.87        	0.78        	consumo         	;
 235             	7.45        	7.65        	consumo         	;
 236             	5.86        	0.25        	consumo         	;
 237             	5.43        	0.45        	consumo         	;
 238             	5.36        	3.97        	consumo         	;
 239             	5.47        	0.04        	consumo         	;
 240             	6.52        	0.53        	consumo         	;
 241             	6.60        	0.00        	consumo         	;
 242             	6.51        	0.12        	consumo         	;
 243             	10.15       	0.49        	consumo         	;
 244             	5.20        	0.53        	consumo         	;
 245             	4.77        	0.37        	consumo         	;
 246             	7.31        	0.25        	consumo         	;
 247             	8.51        	1.27        	consumo         	;
 248             	13.75       	0.94        	consumo         	;
 249             	11.50       	1.35        	consumo         	;
 250             	9.22        	0.65        	consumo         	;
 251             	5.92        	0.41        	consumo         	;
 252             	5.58        	1.10        	consumo         	;
 253             	5.33        	2.86        	consumo         	;
 254             	9.87        	0.16        	consumo         	;
 255             	4.77        	0.82        	consumo         	;
 256             	4.47        	0.45        	consumo         	;
 257             	4.57        	1.31        	consumo         	;
 258             	4.66        	1.15        	consumo         	;
 259             	4.73        	0.82        	consumo         	;
 260             	4.92        	0.78        	consumo         	;
 261             	5.00        	0.33        	consumo         	;
 262             	6.94        	0.65        	consumo         	;
 263             	8.21        	0.74        	consumo         	;
 264             	8.53        	12.97       	consumo         	;
 265             	9.06        	1.68        	consumo         	;
 266             	11.30       	6.34        	consumo         	;
 267             	14.77       	1.15        	consumo         	;
 268             	13.48       	0.65        	consumo         	;
 269             	9.73        	0.20        	consumo         	;
 270             	7.94        	3.44        	consumo         	;
 271             	6.88        	1.02        	consumo         	;
 272             	6.07        	1.10        	consumo         	;
 273             	6.23        	0.37        	consumo         	;
 274             	6.66        	3.60        	consumo         	;
 275             	5.78        	1.31        	consumo         	;
 276             	5.67        	0.61        	consumo         	;
 277             	5.59        	1.31        	consumo         	;
 278             	5.34        	0.49        	consumo         	;
 279             	5.30        	2.58        	consumo         	;
 280             	5.97        	0.00        	consumo         	;
 281             	6.13        	1.31        	consumo         	;
 282             	5.71        	1.72        	consumo         	;
 283             	5.54        	0.53        	consumo         	;
 284             	5.60        	0.90        	consumo         	;
 285             	5.68        	0.49        	consumo         	;
 286             	9.80        	0.78        	consumo         	;
 287             	10.79       	0.53        	consumo         	;
 288             	11.30       	1.43        	consumo         	;
 289             	16.63       	1.88        	consumo         	;
 290             	16.63       	0.61        	consumo         	;
 291             	16.27       	1.39        	consumo         	;
 292             	16.27       	1.68        	consumo         	;
 293             	15.10       	0.45        	consumo         	;
 294             	15.15       	1.06        	consumo         	;
 295             	11.29       	0.61        	consumo         	;
 296             	9.69        	0.90        	consumo         	;
 297             	6.45        	0.04        	consumo         	;
 298             	8.72        	4.01        	consumo         	;
 299             	7.96        	0.20        	consumo         	;
 300             	6.63        	6.38        	consumo         	;
 301             	5.22        	4.74        	consumo         	;
 302             	4.06        	2.05        	consumo         	;
 303             	4.91        	3.11        	consumo         	;
 304             	5.53        	0.53        	consumo         	;
 305             	3.44        	4.29        	consumo         	;
 306             	2.20        	0.53        	consumo         	;
 307             	4.20        	2.29        	consumo         	;
 308             	5.16        	2.78        	consumo         	;
 309             	4.45        	14.97       	consumo         	;
 310             	5.56        	1.80        	consumo         	;
 311             	6.41        	1.06        	consumo         	;
 312             	7.30        	0.82        	consumo         	;
 313             	6.78        	0.53        	consumo         	;
 314             	7.54        	0.49        	consumo         	;
 315             	20.31       	0.33        	consumo         	;
 316             	23.60       	0.37        	consumo         	;
 317             	24.77       	0.16        	consumo         	;
 318             	19.84       	0.20        	consumo         	;
 319             	18.11       	0.65        	consumo         	;
 320             	14.51       	2.41        	consumo         	;
 321             	13.57       	0.57        	consumo         	;
 322             	12.30       	0.12        	consumo         	;
 323             	10.71       	1.76        	consumo         	;
 324             	9.69        	1.27        	consumo         	;
 325             	10.02       	0.90        	consumo         	;
 326             	10.58       	1.51        	consumo         	;
 327             	11.26       	1.96        	consumo         	;
 328             	11.16       	1.15        	consumo         	;
 329             	10.71       	0.37        	consumo         	;
 330             	9.13        	1.43        	consumo         	;
 331             	5.21        	0.00        	consumo         	;
 332             	8.48        	1.31        	consumo         	;
 333             	9.02        	3.56        	consumo         	;
 334             	9.89        	0.61        	consumo         	;
 335             	10.98       	0.94        	consumo         	;
 336             	11.05       	1.02        	consumo         	;
 337             	11.04       	3.19        	consumo         	;
 338             	12.17       	0.94        	consumo         	;
 339             	12.53       	0.49        	consumo         	;
 340             	13.14       	4.58        	consumo         	;
 341             	14.53       	0.90        	consumo         	;
 342             	16.66       	0.16        	consumo         	;
 343             	16.79       	10.14       	consumo         	;
 344             	21.29       	2.54        	consumo         	;
 345             	16.26       	0.94        	consumo         	;
 346             	11.18       	2.29        	consumo         	;
 347             	10.50       	2.29        	consumo         	;
 348             	11.22       	2.37        	consumo         	;
 349             	10.47       	0.00        	consumo         	;
 350             	11.31       	1.74        	consumo         	;
 351             	3.16        	0.55        	consumo         	;
 352             	15.47       	0.72        	consumo         	;
 353             	18.74       	1.36        	consumo         	;
 354             	17.26       	0.68        	consumo         	;
 356             	9.41        	2.08        	consumo         	;
 357             	8.92        	0.94        	consumo         	;
 358             	5.52        	2.72        	consumo         	;
 359             	5.99        	2.59        	consumo         	;
 360             	49.79       	0.64        	consumo         	;
 361             	7.07        	4.00        	consumo         	;
 362             	3.88        	1.96        	consumo         	;
 363             	2.19        	7.61        	consumo         	;
 364             	16.98       	4.63        	consumo         	;
 365             	18.46       	2.47        	consumo         	;
 366             	16.47       	0.68        	consumo         	;
 367             	8.19        	0.51        	consumo         	;
 368             	4.50        	1.23        	consumo         	;
 369             	18.55       	0.34        	consumo         	;
 370             	5.19        	0.38        	consumo         	;
 371             	7.93        	2.64        	consumo         	;
 372             	11.56       	7.99        	consumo         	;
 373             	8.11        	0.47        	consumo         	;
 374             	9.02        	0.30        	consumo         	;
 375             	7.81        	0.04        	consumo         	;
 376             	6.98        	0.43        	consumo         	;
 377             	6.05        	0.81        	consumo         	;
 378             	5.86        	0.47        	consumo         	;
 379             	6.68        	0.38        	consumo         	;
 380             	6.63        	1.02        	consumo         	;
 381             	6.54        	0.55        	consumo         	;
 382             	6.86        	0.38        	consumo         	;
 383             	7.05        	0.85        	consumo         	;
 384             	7.73        	2.13        	consumo         	;
 385             	8.23        	1.11        	consumo         	;
 386             	9.40        	0.94        	consumo         	;
 387             	10.88       	1.62        	consumo         	;
 388             	27.19       	0.47        	consumo         	;
 389             	22.63       	1.15        	consumo         	;
 390             	21.13       	0.68        	consumo         	;
 391             	10.98       	0.38        	consumo         	;
 392             	8.98        	0.30        	consumo         	;
 393             	8.64        	0.81        	consumo         	;
 394             	15.91       	1.45        	consumo         	;
 395             	11.67       	2.08        	consumo         	;
 396             	1.95        	2.85        	consumo         	;
 397             	6.03        	4.12        	consumo         	;
 398             	2.20        	3.40        	consumo         	;
 399             	1.51        	3.36        	consumo         	;
 400             	1.81        	1.23        	consumo         	;
 401             	1.16        	2.64        	consumo         	;
 402             	1.19        	1.15        	consumo         	;
 403             	1.10        	2.08        	consumo         	;
 404             	1.11        	0.81        	consumo         	;
 405             	1.03        	2.08        	consumo         	;
 406             	1.42        	1.57        	consumo         	;
 407             	1.75        	2.04        	consumo         	;
 408             	0.96        	3.87        	consumo         	;
 409             	1.56        	0.38        	consumo         	;
 410             	1.77        	0.55        	consumo         	;
 411             	1.63        	0.89        	consumo         	;
 412             	11.69       	1.06        	consumo         	;
 413             	9.85        	0.81        	consumo         	;
 414             	17.10       	11.22       	consumo         	;
 415             	1.08        	1.49        	consumo         	;
 416             	1.20        	2.21        	consumo         	;
 417             	1.16        	0.81        	consumo         	;
 418             	1.22        	0.77        	consumo         	;
 419             	0.99        	0.77        	consumo         	;
 420             	0.92        	0.94        	consumo         	;
 421             	1.26        	0.77        	consumo         	;
 422             	1.22        	0.765       	consumo         	;
 423             	1.13        	1.02        	consumo         	;
 424             	1.22        	0.47        	consumo         	;
 425             	1.12        	0.09        	consumo         	;
 426             	1.12        	0.13        	consumo         	;
 427             	2.11        	0.17        	consumo         	;
 428             	7.60        	0.17        	consumo         	;
 429             	14.74       	0.72        	consumo         	;
 430             	43.01       	3.57        	consumo         	;
 432             	17.47       	1.03        	consumo         	;
 433             	1.64        	14.59       	consumo         	;
 434             	1.53        	0.85        	consumo         	;
 435             	1.67        	3.25        	consumo         	;
 436             	2.07        	0.85        	consumo         	;
 437             	1.99        	0.48        	consumo         	;
 438             	1.98        	0.41        	consumo         	;
 439             	2.04        	0.52        	consumo         	;
 440             	2.32        	0.52        	consumo         	;
 441             	2.18        	1.92        	consumo         	;
 442             	2.12        	0.78        	consumo         	;
 443             	2.09        	4.54        	consumo         	;
 444             	2.00        	0.55        	consumo         	;
 445             	1.84        	0.74        	consumo         	;
 446             	1.77        	0.85        	consumo         	;
 447             	1.92        	1.55        	consumo         	;
 448             	2.06        	1.26        	consumo         	;
 449             	2.11        	2.11        	consumo         	;
 450             	18.42       	0.17        	consumo         	;
 451             	16.67       	0.55        	consumo         	;
 452             	4.15        	0.00        	consumo         	;
 453             	1.95        	1.07        	consumo         	;
 454             	1.88        	0.93        	consumo         	;
 455             	1.70        	0.93        	consumo         	;
 456             	19.40       	1.04        	consumo         	;
 457             	23.47       	0.07        	consumo         	;
 458             	23.49       	0.82        	consumo         	;
 459             	23.30       	1.32        	consumo         	;
 460             	22.80       	0.21        	consumo         	;
 461             	22.42       	1.97        	consumo         	;
 462             	19.53       	1.75        	consumo         	;
 463             	17.52       	4.68        	consumo         	;
 464             	16.51       	2.29        	consumo         	;
 465             	23.47       	0.00        	consumo         	;
 466             	21.99       	0.18        	consumo         	;
 467             	13.34       	0.00        	consumo         	;
 468             	6.06        	0.54        	consumo         	;
 469             	18.91       	0.64        	consumo         	;
 470             	1.36        	0.14        	consumo         	;
 471             	1.28        	0.89        	consumo         	;
 472             	0.93        	1.89        	consumo         	;
 473             	2.28        	0.49        	consumo         	;
 474             	2.48        	12.97       	consumo         	;
 475             	2.41        	2.49        	consumo         	;
 497             	1.83        	0.64        	consumo         	;
 498             	3.62        	0.43        	consumo         	;
 499             	3.20        	0.39        	consumo         	;
 500             	3.74        	0.25        	consumo         	;
 501             	4.50        	0.18        	consumo         	;